/*--------------------------------*- C++ -*----------------------------------*\
  =========                 |
  \\      /  F ield         | OpenFOAM: The Open Source CFD Toolbox
   \\    /   O peration     | Website:  https://openfoam.org
    \\  /    A nd           | Version:  12
     \\/     M anipulation  |
\*---------------------------------------------------------------------------*/
FoamFile
{
    format      ascii;
    class       volScalarField;
    object      omega;
}
// * * * * * * * * * * * * * * * * * * * * * * * * * * * * * * * * * * * * * //

dimensions      [0 0 -1 0 0 0 0];

internalField   uniform 40;

boundaryField
{
    #includeEtc "caseDicts/setConstraintTypes"

    inlet
	{
		type			fixedValue;
		value			$internalField;
	}
	
	outlet
    {
        type            zeroGradient;
    }

    walls
    {
        type            omegaWallFunction;
        value           $internalField;
    }
}


// ************************************************************************* //
