/*--------------------------------*- C++ -*----------------------------------*\
| =========                 |                                                 |
| \\      /  F ield         | OpenFOAM: The Open Source CFD Toolbox           |
|  \\    /   O peration     | Version:  12                                 |
|   \\  /    A nd           | Website:  www.openfoam.com                      |
|    \\/     M anipulation  |                                                 |
\*---------------------------------------------------------------------------*/
FoamFile
{
    version     2.0;
    format      ascii;
    class       dictionary;
    object      blockMeshDict;
}
// * * * * * * * * * * * * * * * * * * * * * * * * * * * * * * * * * * * * * //

scale   1;


x0       -0.10;
x1        0.30;
y0       -0.50;
y1        0.10;
z0       -0.05;
z1        0.05;

nx       20;
ny       30;
nz       5;

vertices
(
    ($x0 $y0 $z0)
    ($x1 $y0 $z0)
    ($x1 $y1 $z0)
    ($x0 $y1 $z0)
    ($x0 $y0 $z1)
    ($x1 $y0 $z1)
    ($x1 $y1 $z1)
    ($x0 $y1 $z1)
);

blocks
(
    hex (0 1 2 3 4 5 6 7) ($nx $ny $nz) simpleGrading (1 1 1)
);

defaultPatch
{
	name default;
	type wall;
}

edges
(
);

boundary
(
    
);

mergePatchPairs
(
);


// ************************************************************************* //
